Circuit: * Y:\projects\zaehlrohr\spice\Diff.asc

Direct Newton iteration failed to find .op point.  (Use ".option noopiter" to skip.)
Starting Gmin stepping
Gmin = 10
Gmin = 1.07374
Gmin = 0.115292
Gmin = 0.0123794
Gmin = 0.00132923
Gmin = 0.000142725
Gmin = 1.5325e-005
Gmin = 1.6455e-006
Gmin = 1.76685e-007
Gmin = 1.89714e-008
Gmin = 2.03704e-009
Gmin = 2.18725e-010
Gmin = 2.34854e-011
Gmin = 2.52173e-012
Gmin = 2.70769e-013
Gmin = 0
Gmin stepping succeeded in finding the operating point.


Date: Tue Nov 26 22:24:43 2013
Total elapsed time: 0.099 seconds.

tnom = 27
temp = 27
method = modified trap
totiter = 9428
traniter = 9034
tranpoints = 3877
accept = 3007
rejected = 870
matrix size = 12
fillins = 0
solver = Normal
Matrix Compiler1: 356 bytes object code size  0.8/0.3/[0.3]
Matrix Compiler2: 812 bytes object code size  0.9/0.7/[0.5]


